powerfulcases/cases/matpower/case70da/case70da.raw
0, 1, 33, 0, 0, 60  / 28-Jan-2026 21:53:16 - MATPOWER 8.1


     1, 'BUS 1       ',        11, 3,    1,    1, 1,           1,           0,    1,    1,    1,    1
     2, 'BUS 2       ',        11, 1,    1,    1, 1,           1,           0,  1.1,  0.9,  1.1,  0.9
     3, 'BUS 3       ',        11, 1,    1,    1, 1,           1,           0,  1.1,  0.9,  1.1,  0.9
     4, 'BUS 4       ',        11, 1,    1,    1, 1,           1,           0,  1.1,  0.9,  1.1,  0.9
     5, 'BUS 5       ',        11, 1,    1,    1, 1,           1,           0,  1.1,  0.9,  1.1,  0.9
     6, 'BUS 6       ',        11, 1,    1,    1, 1,           1,           0,  1.1,  0.9,  1.1,  0.9
     7, 'BUS 7       ',        11, 1,    1,    1, 1,           1,           0,  1.1,  0.9,  1.1,  0.9
     8, 'BUS 8       ',        11, 1,    1,    1, 1,           1,           0,  1.1,  0.9,  1.1,  0.9
     9, 'BUS 9       ',        11, 1,    1,    1, 1,           1,           0,  1.1,  0.9,  1.1,  0.9
    10, 'BUS 10      ',        11, 1,    1,    1, 1,           1,           0,  1.1,  0.9,  1.1,  0.9
    11, 'BUS 11      ',        11, 1,    1,    1, 1,           1,           0,  1.1,  0.9,  1.1,  0.9
    12, 'BUS 12      ',        11, 1,    1,    1, 1,           1,           0,  1.1,  0.9,  1.1,  0.9
    13, 'BUS 13      ',        11, 1,    1,    1, 1,           1,           0,  1.1,  0.9,  1.1,  0.9
    14, 'BUS 14      ',        11, 1,    1,    1, 1,           1,           0,  1.1,  0.9,  1.1,  0.9
    15, 'BUS 15      ',        11, 1,    1,    1, 1,           1,           0,  1.1,  0.9,  1.1,  0.9
    16, 'BUS 16      ',        11, 1,    1,    1, 1,           1,           0,  1.1,  0.9,  1.1,  0.9
    17, 'BUS 17      ',        11, 1,    1,    1, 1,           1,           0,  1.1,  0.9,  1.1,  0.9
    18, 'BUS 18      ',        11, 1,    1,    1, 1,           1,           0,  1.1,  0.9,  1.1,  0.9
    19, 'BUS 19      ',        11, 1,    1,    1, 1,           1,           0,  1.1,  0.9,  1.1,  0.9
    20, 'BUS 20      ',        11, 1,    1,    1, 1,           1,           0,  1.1,  0.9,  1.1,  0.9
    21, 'BUS 21      ',        11, 1,    1,    1, 1,           1,           0,  1.1,  0.9,  1.1,  0.9
    22, 'BUS 22      ',        11, 1,    1,    1, 1,           1,           0,  1.1,  0.9,  1.1,  0.9
    23, 'BUS 23      ',        11, 1,    1,    1, 1,           1,           0,  1.1,  0.9,  1.1,  0.9
    24, 'BUS 24      ',        11, 1,    1,    1, 1,           1,           0,  1.1,  0.9,  1.1,  0.9
    25, 'BUS 25      ',        11, 1,    1,    1, 1,           1,           0,  1.1,  0.9,  1.1,  0.9
    26, 'BUS 26      ',        11, 1,    1,    1, 1,           1,           0,  1.1,  0.9,  1.1,  0.9
    27, 'BUS 27      ',        11, 1,    1,    1, 1,           1,           0,  1.1,  0.9,  1.1,  0.9
    28, 'BUS 28      ',        11, 1,    1,    1, 1,           1,           0,  1.1,  0.9,  1.1,  0.9
    29, 'BUS 29      ',        11, 1,    1,    1, 1,           1,           0,  1.1,  0.9,  1.1,  0.9
    30, 'BUS 30      ',        11, 1,    1,    1, 1,           1,           0,  1.1,  0.9,  1.1,  0.9
    31, 'BUS 31      ',        11, 1,    1,    1, 1,           1,           0,  1.1,  0.9,  1.1,  0.9
    32, 'BUS 32      ',        11, 1,    1,    1, 1,           1,           0,  1.1,  0.9,  1.1,  0.9
    33, 'BUS 33      ',        11, 1,    1,    1, 1,           1,           0,  1.1,  0.9,  1.1,  0.9
    34, 'BUS 34      ',        11, 1,    1,    1, 1,           1,           0,  1.1,  0.9,  1.1,  0.9
    35, 'BUS 35      ',        11, 1,    1,    1, 1,           1,           0,  1.1,  0.9,  1.1,  0.9
    36, 'BUS 36      ',        11, 1,    1,    1, 1,           1,           0,  1.1,  0.9,  1.1,  0.9
    37, 'BUS 37      ',        11, 1,    1,    1, 1,           1,           0,  1.1,  0.9,  1.1,  0.9
    38, 'BUS 38      ',        11, 1,    1,    1, 1,           1,           0,  1.1,  0.9,  1.1,  0.9
    39, 'BUS 39      ',        11, 1,    1,    1, 1,           1,           0,  1.1,  0.9,  1.1,  0.9
    40, 'BUS 40      ',        11, 1,    1,    1, 1,           1,           0,  1.1,  0.9,  1.1,  0.9
    41, 'BUS 41      ',        11, 1,    1,    1, 1,           1,           0,  1.1,  0.9,  1.1,  0.9
    42, 'BUS 42      ',        11, 1,    1,    1, 1,           1,           0,  1.1,  0.9,  1.1,  0.9
    43, 'BUS 43      ',        11, 1,    1,    1, 1,           1,           0,  1.1,  0.9,  1.1,  0.9
    44, 'BUS 44      ',        11, 1,    1,    1, 1,           1,           0,  1.1,  0.9,  1.1,  0.9
    45, 'BUS 45      ',        11, 1,    1,    1, 1,           1,           0,  1.1,  0.9,  1.1,  0.9
    46, 'BUS 46      ',        11, 1,    1,    1, 1,           1,           0,  1.1,  0.9,  1.1,  0.9
    47, 'BUS 47      ',        11, 1,    1,    1, 1,           1,           0,  1.1,  0.9,  1.1,  0.9
    48, 'BUS 48      ',        11, 1,    1,    1, 1,           1,           0,  1.1,  0.9,  1.1,  0.9
    49, 'BUS 49      ',        11, 1,    1,    1, 1,           1,           0,  1.1,  0.9,  1.1,  0.9
    50, 'BUS 50      ',        11, 1,    1,    1, 1,           1,           0,  1.1,  0.9,  1.1,  0.9
    51, 'BUS 51      ',        11, 1,    1,    1, 1,           1,           0,  1.1,  0.9,  1.1,  0.9
    52, 'BUS 52      ',        11, 1,    1,    1, 1,           1,           0,  1.1,  0.9,  1.1,  0.9
    53, 'BUS 53      ',        11, 1,    1,    1, 1,           1,           0,  1.1,  0.9,  1.1,  0.9
    54, 'BUS 54      ',        11, 1,    1,    1, 1,           1,           0,  1.1,  0.9,  1.1,  0.9
    55, 'BUS 55      ',        11, 1,    1,    1, 1,           1,           0,  1.1,  0.9,  1.1,  0.9
    56, 'BUS 56      ',        11, 1,    1,    1, 1,           1,           0,  1.1,  0.9,  1.1,  0.9
    57, 'BUS 57      ',        11, 1,    1,    1, 1,           1,           0,  1.1,  0.9,  1.1,  0.9
    58, 'BUS 58      ',        11, 1,    1,    1, 1,           1,           0,  1.1,  0.9,  1.1,  0.9
    59, 'BUS 59      ',        11, 1,    1,    1, 1,           1,           0,  1.1,  0.9,  1.1,  0.9
    60, 'BUS 60      ',        11, 1,    1,    1, 1,           1,           0,  1.1,  0.9,  1.1,  0.9
    61, 'BUS 61      ',        11, 1,    1,    1, 1,           1,           0,  1.1,  0.9,  1.1,  0.9
    62, 'BUS 62      ',        11, 1,    1,    1, 1,           1,           0,  1.1,  0.9,  1.1,  0.9
    63, 'BUS 63      ',        11, 1,    1,    1, 1,           1,           0,  1.1,  0.9,  1.1,  0.9
    64, 'BUS 64      ',        11, 1,    1,    1, 1,           1,           0,  1.1,  0.9,  1.1,  0.9
    65, 'BUS 65      ',        11, 1,    1,    1, 1,           1,           0,  1.1,  0.9,  1.1,  0.9
    66, 'BUS 66      ',        11, 1,    1,    1, 1,           1,           0,  1.1,  0.9,  1.1,  0.9
    67, 'BUS 67      ',        11, 1,    1,    1, 1,           1,           0,  1.1,  0.9,  1.1,  0.9
    68, 'BUS 68      ',        11, 1,    1,    1, 1,           1,           0,  1.1,  0.9,  1.1,  0.9
    69, 'BUS 69      ',        11, 1,    1,    1, 1,           1,           0,  1.1,  0.9,  1.1,  0.9
    70, 'BUS 70      ',        11, 3,    1,    1, 1,           1,           0,    1,    1,    1,    1
0 / END OF BUS DATA, BEGIN LOAD DATA
     2,  1, 1,    1,    1,      0.12,     0.108, 0, 0, 0, 0, 1, 1, 0
     3,  1, 1,    1,    1,     0.072,     0.048, 0, 0, 0, 0, 1, 1, 0
     4,  1, 1,    1,    1,      0.18,     0.156, 0, 0, 0, 0, 1, 1, 0
     5,  1, 1,    1,    1,      0.09,      0.06, 0, 0, 0, 0, 1, 1, 0
     6,  1, 1,    1,    1,    0.0216,     0.013, 0, 0, 0, 0, 1, 1, 0
     7,  1, 1,    1,    1,    0.0216,     0.017, 0, 0, 0, 0, 1, 1, 0
     8,  1, 1,    1,    1,    0.0156,     0.012, 0, 0, 0, 0, 1, 1, 0
     9,  1, 1,    1,    1,     0.019,     0.013, 0, 0, 0, 0, 1, 1, 0
    10,  1, 1,    1,    1,     0.024,     0.012, 0, 0, 0, 0, 1, 1, 0
    11,  1, 1,    1,    1,    0.0192,     0.011, 0, 0, 0, 0, 1, 1, 0
    12,  1, 1,    1,    1,      0.06,     0.048, 0, 0, 0, 0, 1, 1, 0
    13,  1, 1,    1,    1,     0.126,     0.108, 0, 0, 0, 0, 1, 1, 0
    14,  1, 1,    1,    1,      0.03,     0.018, 0, 0, 0, 0, 1, 1, 0
    15,  1, 1,    1,    1,     0.048,      0.03, 0, 0, 0, 0, 1, 1, 0
    16,  1, 1,    1,    1,     0.072,     0.036, 0, 0, 0, 0, 1, 1, 0
    17,  1, 1,    1,    1,     0.048,      0.03, 0, 0, 0, 0, 1, 1, 0
    18,  1, 1,    1,    1,     0.018,     0.011, 0, 0, 0, 0, 1, 1, 0
    19,  1, 1,    1,    1,    0.0156,    0.0084, 0, 0, 0, 0, 1, 1, 0
    20,  1, 1,    1,    1,     0.036,     0.024, 0, 0, 0, 0, 1, 1, 0
    21,  1, 1,    1,    1,     0.108,      0.06, 0, 0, 0, 0, 1, 1, 0
    22,  1, 1,    1,    1,      0.06,     0.036, 0, 0, 0, 0, 1, 1, 0
    23,  1, 1,    1,    1,     0.072,     0.048, 0, 0, 0, 0, 1, 1, 0
    24,  1, 1,    1,    1,      0.12,     0.096, 0, 0, 0, 0, 1, 1, 0
    25,  1, 1,    1,    1,     0.096,     0.078, 0, 0, 0, 0, 1, 1, 0
    26,  1, 1,    1,    1,      0.12,     0.072, 0, 0, 0, 0, 1, 1, 0
    27,  1, 1,    1,    1,      0.12,     0.066, 0, 0, 0, 0, 1, 1, 0
    28,  1, 1,    1,    1,     0.144,     0.084, 0, 0, 0, 0, 1, 1, 0
    29,  1, 1,    1,    1,     0.126,     0.084, 0, 0, 0, 0, 1, 1, 0
    30,  1, 1,    1,    1,     0.096,      0.06, 0, 0, 0, 0, 1, 1, 0
    31,  1, 1,    1,    1,     0.072,     0.048, 0, 0, 0, 0, 1, 1, 0
    32,  1, 1,    1,    1,    0.0156,    0.0096, 0, 0, 0, 0, 1, 1, 0
    33,  1, 1,    1,    1,    0.0192,    0.0118, 0, 0, 0, 0, 1, 1, 0
    34,  1, 1,    1,    1,      0.06,     0.036, 0, 0, 0, 0, 1, 1, 0
    35,  1, 1,    1,    1,     0.048,    0.0336, 0, 0, 0, 0, 1, 1, 0
    36,  1, 1,    1,    1,     0.072,     0.048, 0, 0, 0, 0, 1, 1, 0
    37,  1, 1,    1,    1,     0.048,     0.036, 0, 0, 0, 0, 1, 1, 0
    38,  1, 1,    1,    1,     0.036,      0.03, 0, 0, 0, 0, 1, 1, 0
    39,  1, 1,    1,    1,      0.18,      0.12, 0, 0, 0, 0, 1, 1, 0
    40,  1, 1,    1,    1,     0.072,     0.042, 0, 0, 0, 0, 1, 1, 0
    41,  1, 1,    1,    1,     0.144,     0.084, 0, 0, 0, 0, 1, 1, 0
    42,  1, 1,    1,    1,     0.108,     0.072, 0, 0, 0, 0, 1, 1, 0
    43,  1, 1,    1,    1,    0.0216,     0.012, 0, 0, 0, 0, 1, 1, 0
    44,  1, 1,    1,    1,    0.0192,     0.012, 0, 0, 0, 0, 1, 1, 0
    45,  1, 1,    1,    1,      0.12,      0.06, 0, 0, 0, 0, 1, 1, 0
    46,  1, 1,    1,    1,     0.072,     0.048, 0, 0, 0, 0, 1, 1, 0
    47,  1, 1,    1,    1,     0.108,     0.084, 0, 0, 0, 0, 1, 1, 0
    48,  1, 1,    1,    1,    0.1224,    0.0792, 0, 0, 0, 0, 1, 1, 0
    49,  1, 1,    1,    1,      0.12,     0.084, 0, 0, 0, 0, 1, 1, 0
    50,  1, 1,    1,    1,     0.168,     0.108, 0, 0, 0, 0, 1, 1, 0
    51,  1, 1,    1,    1,     0.072,     0.048, 0, 0, 0, 0, 1, 1, 0
    52,  1, 1,    1,    1,     0.024,    0.0132, 0, 0, 0, 0, 1, 1, 0
    53,  1, 1,    1,    1,     0.048,     0.036, 0, 0, 0, 0, 1, 1, 0
    54,  1, 1,    1,    1,    0.0432,    0.0288, 0, 0, 0, 0, 1, 1, 0
    55,  1, 1,    1,    1,     0.036,     0.024, 0, 0, 0, 0, 1, 1, 0
    56,  1, 1,    1,    1,    0.0516,     0.036, 0, 0, 0, 0, 1, 1, 0
    57,  1, 1,    1,    1,     0.096,      0.06, 0, 0, 0, 0, 1, 1, 0
    58,  1, 1,    1,    1,     0.288,     0.144, 0, 0, 0, 0, 1, 1, 0
    59,  1, 1,    1,    1,      0.15,     0.132, 0, 0, 0, 0, 1, 1, 0
    60,  1, 1,    1,    1,      0.03,     0.012, 0, 0, 0, 0, 1, 1, 0
    61,  1, 1,    1,    1,     0.012,     0.006, 0, 0, 0, 0, 1, 1, 0
    62,  1, 1,    1,    1,      0.18,     0.156, 0, 0, 0, 0, 1, 1, 0
    63,  1, 1,    1,    1,      0.06,     0.036, 0, 0, 0, 0, 1, 1, 0
    64,  1, 1,    1,    1,     0.036,     0.024, 0, 0, 0, 0, 1, 1, 0
    65,  1, 1,    1,    1,     0.156,     0.144, 0, 0, 0, 0, 1, 1, 0
    66,  1, 1,    1,    1,      0.18,     0.156, 0, 0, 0, 0, 1, 1, 0
    67,  1, 1,    1,    1,      0.03,     0.018, 0, 0, 0, 0, 1, 1, 0
    68,  1, 1,    1,    1,      0.12,     0.072, 0, 0, 0, 0, 1, 1, 0
    69,  1, 1,    1,    1,     0.048,     0.036, 0, 0, 0, 0, 1, 1, 0
0 / END OF LOAD DATA, BEGIN FIXED SHUNT DATA
0 / END OF FIXED SHUNT DATA, BEGIN GENERATOR DATA
     1,  1,         0,         0,        10,       -10,        1, 0,     100, 0, 1, 0, 0, 1, 1, 100,        10,         0, 1, 1, 0, 1, 0, 1, 0, 1, 0, 1
    70,  1,         0,         0,        10,       -10,        1, 0,     100, 0, 1, 0, 0, 1, 1, 100,        10,         0, 1, 1, 0, 1, 0, 1, 0, 1, 0, 1
0 / END OF GENERATOR DATA, BEGIN BRANCH DATA
     1,      2, 1, 0.009066116, 0.008876033,        0,       0,       0,       0, 0, 0, 0, 0, 1, 1, 0, 1, 1, 0, 1, 0, 1, 0, 1
     2,      3, 1, 0.01209091, 0.01183471,        0,       0,       0,       0, 0, 0, 0, 0, 1, 1, 0, 1, 1, 0, 1, 0, 1, 0, 1
     3,      4, 1, 0.006041322, 0.005917355,        0,       0,       0,       0, 0, 0, 0, 0, 1, 1, 0, 1, 1, 0, 1, 0, 1, 0, 1
     4,      5, 1, 0.003024793, 0.002958678,        0,       0,       0,       0, 0, 0, 0, 0, 1, 1, 0, 1, 1, 0, 1, 0, 1, 0, 1
     5,      6, 1, 0.01510744, 0.01479339,        0,       0,       0,       0, 0, 0, 0, 0, 1, 1, 0, 1, 1, 0, 1, 0, 1, 0, 1
     6,      7, 1, 0.009066116, 0.008876033,        0,       0,       0,       0, 0, 0, 0, 0, 1, 1, 0, 1, 1, 0, 1, 0, 1, 0, 1
     7,      8, 1, 0.006041322, 0.005917355,        0,       0,       0,       0, 0, 0, 0, 0, 1, 1, 0, 1, 1, 0, 1, 0, 1, 0, 1
     8,      9, 1, 0.006041322, 0.005917355,        0,       0,       0,       0, 0, 0, 0, 0, 1, 1, 0, 1, 1, 0, 1, 0, 1, 0, 1
     4,     10, 1, 0.00892562, 0.006066116,        0,       0,       0,       0, 0, 0, 0, 0, 1, 1, 0, 1, 1, 0, 1, 0, 1, 0, 1
    10,     11, 1, 0.01338843, 0.009099174,        0,       0,       0,       0, 0, 0, 0, 0, 1, 1, 0, 1, 1, 0, 1, 0, 1, 0, 1
    11,     12, 1, 0.00892562, 0.006066116,        0,       0,       0,       0, 0, 0, 0, 0, 1, 1, 0, 1, 1, 0, 1, 0, 1, 0, 1
    12,     13, 1, 0.01115702, 0.007578512,        0,       0,       0,       0, 0, 0, 0, 0, 1, 1, 0, 1, 1, 0, 1, 0, 1, 0, 1
    13,     14, 1, 0.006694215, 0.004545455,        0,       0,       0,       0, 0, 0, 0, 0, 1, 1, 0, 1, 1, 0, 1, 0, 1, 0, 1
    14,     15, 1, 0.01606612, 0.01091736,        0,       0,       0,       0, 0, 0, 0, 0, 1, 1, 0, 1, 1, 0, 1, 0, 1, 0, 1
     7,     68, 1, 0.00892562, 0.006066116,        0,       0,       0,       0, 0, 0, 0, 0, 1, 1, 0, 1, 1, 0, 1, 0, 1, 0, 1
    68,     69, 1, 0.01338843, 0.009099174,        0,       0,       0,       0, 0, 0, 0, 0, 1, 1, 0, 1, 1, 0, 1, 0, 1, 0, 1
     1,     16, 1, 0.009066116, 0.008876033,        0,       0,       0,       0, 0, 0, 0, 0, 1, 1, 0, 1, 1, 0, 1, 0, 1, 0, 1
    16,     17, 1, 0.003024793, 0.002958678,        0,       0,       0,       0, 0, 0, 0, 0, 1, 1, 0, 1, 1, 0, 1, 0, 1, 0, 1
    17,     18, 1, 0.01209091, 0.01183471,        0,       0,       0,       0, 0, 0, 0, 0, 1, 1, 0, 1, 1, 0, 1, 0, 1, 0, 1
    18,     19, 1, 0.007553719, 0.007396694,        0,       0,       0,       0, 0, 0, 0, 0, 1, 1, 0, 1, 1, 0, 1, 0, 1, 0, 1
    19,     20, 1, 0.006644628, 0.006504132,        0,       0,       0,       0, 0, 0, 0, 0, 1, 1, 0, 1, 1, 0, 1, 0, 1, 0, 1
    20,     21, 1, 0.009363636, 0.009173554,        0,       0,       0,       0, 0, 0, 0, 0, 1, 1, 0, 1, 1, 0, 1, 0, 1, 0, 1
    21,     22, 1, 0.00392562, 0.003842975,        0,       0,       0,       0, 0, 0, 0, 0, 1, 1, 0, 1, 1, 0, 1, 0, 1, 0, 1
    17,     23, 1, 0.01829752, 0.01243802,        0,       0,       0,       0, 0, 0, 0, 0, 1, 1, 0, 1, 1, 0, 1, 0, 1, 0, 1
    23,     24, 1, 0.01338843, 0.009173554,        0,       0,       0,       0, 0, 0, 0, 0, 1, 1, 0, 1, 1, 0, 1, 0, 1, 0, 1
    24,     25, 1, 0.00892562, 0.006066116,        0,       0,       0,       0, 0, 0, 0, 0, 1, 1, 0, 1, 1, 0, 1, 0, 1, 0, 1
    25,     26, 1, 0.00446281, 0.003033058,        0,       0,       0,       0, 0, 0, 0, 0, 1, 1, 0, 1, 1, 0, 1, 0, 1, 0, 1
    26,     27, 1, 0.00446281, 0.003033058,        0,       0,       0,       0, 0, 0, 0, 0, 1, 1, 0, 1, 1, 0, 1, 0, 1, 0, 1
    27,     28, 1, 0.00892562, 0.006066116,        0,       0,       0,       0, 0, 0, 0, 0, 1, 1, 0, 1, 1, 0, 1, 0, 1, 0, 1
    28,     29, 1, 0.00892562, 0.006066116,        0,       0,       0,       0, 0, 0, 0, 0, 1, 1, 0, 1, 1, 0, 1, 0, 1, 0, 1
    70,     30, 1, 0.003024793, 0.002958678,        0,       0,       0,       0, 0, 0, 0, 0, 1, 1, 0, 1, 1, 0, 1, 0, 1, 0, 1
    30,     31, 1, 0.006041322, 0.005917355,        0,       0,       0,       0, 0, 0, 0, 0, 1, 1, 0, 1, 1, 0, 1, 0, 1, 0, 1
    31,     32, 1, 0.006041322, 0.005917355,        0,       0,       0,       0, 0, 0, 0, 0, 1, 1, 0, 1, 1, 0, 1, 0, 1, 0, 1
    32,     33, 1, 0.006644628, 0.006504132,        0,       0,       0,       0, 0, 0, 0, 0, 1, 1, 0, 1, 1, 0, 1, 0, 1, 0, 1
    33,     34, 1, 0.009669421, 0.00946281,        0,       0,       0,       0, 0, 0, 0, 0, 1, 1, 0, 1, 1, 0, 1, 0, 1, 0, 1
    34,     35, 1, 0.006347107, 0.006214876,        0,       0,       0,       0, 0, 0, 0, 0, 1, 1, 0, 1, 1, 0, 1, 0, 1, 0, 1
    35,     36, 1, 0.006041322, 0.005917355,        0,       0,       0,       0, 0, 0, 0, 0, 1, 1, 0, 1, 1, 0, 1, 0, 1, 0, 1
    36,     37, 1, 0.009066116, 0.008876033,        0,       0,       0,       0, 0, 0, 0, 0, 1, 1, 0, 1, 1, 0, 1, 0, 1, 0, 1
    37,     38, 1, 0.01209091, 0.01183471,        0,       0,       0,       0, 0, 0, 0, 0, 1, 1, 0, 1, 1, 0, 1, 0, 1, 0, 1
    32,     39, 1, 0.00892562, 0.006066116,        0,       0,       0,       0, 0, 0, 0, 0, 1, 1, 0, 1, 1, 0, 1, 0, 1, 0, 1
    39,     40, 1, 0.00446281, 0.003033058,        0,       0,       0,       0, 0, 0, 0, 0, 1, 1, 0, 1, 1, 0, 1, 0, 1, 0, 1
    40,     41, 1, 0.00892562, 0.006066116,        0,       0,       0,       0, 0, 0, 0, 0, 1, 1, 0, 1, 1, 0, 1, 0, 1, 0, 1
    41,     42, 1, 0.01517355, 0.01031405,        0,       0,       0,       0, 0, 0, 0, 0, 1, 1, 0, 1, 1, 0, 1, 0, 1, 0, 1
    42,     43, 1, 0.01071074, 0.007280992,        0,       0,       0,       0, 0, 0, 0, 0, 1, 1, 0, 1, 1, 0, 1, 0, 1, 0, 1
    40,     44, 1, 0.009818182, 0.006669421,        0,       0,       0,       0, 0, 0, 0, 0, 1, 1, 0, 1, 1, 0, 1, 0, 1, 0, 1
    44,     45, 1, 0.00446281, 0.003033058,        0,       0,       0,       0, 0, 0, 0, 0, 1, 1, 0, 1, 1, 0, 1, 0, 1, 0, 1
    42,     46, 1, 0.00892562, 0.006066116,        0,       0,       0,       0, 0, 0, 0, 0, 1, 1, 0, 1, 1, 0, 1, 0, 1, 0, 1
    35,     47, 1, 0.00446281, 0.003033058,        0,       0,       0,       0, 0, 0, 0, 0, 1, 1, 0, 1, 1, 0, 1, 0, 1, 0, 1
    47,     48, 1, 0.00892562, 0.006066116,        0,       0,       0,       0, 0, 0, 0, 0, 1, 1, 0, 1, 1, 0, 1, 0, 1, 0, 1
    48,     49, 1, 0.00892562, 0.006066116,        0,       0,       0,       0, 0, 0, 0, 0, 1, 1, 0, 1, 1, 0, 1, 0, 1, 0, 1
    49,     50, 1, 0.00892562, 0.006066116,        0,       0,       0,       0, 0, 0, 0, 0, 1, 1, 0, 1, 1, 0, 1, 0, 1, 0, 1
    70,     51, 1, 0.003024793, 0.002958678,        0,       0,       0,       0, 0, 0, 0, 0, 1, 1, 0, 1, 1, 0, 1, 0, 1, 0, 1
    51,     52, 1, 0.01209091, 0.01183471,        0,       0,       0,       0, 0, 0, 0, 0, 1, 1, 0, 1, 1, 0, 1, 0, 1, 0, 1
    52,     53, 1, 0.01209091, 0.01183471,        0,       0,       0,       0, 0, 0, 0, 0, 1, 1, 0, 1, 1, 0, 1, 0, 1, 0, 1
    53,     54, 1, 0.007553719, 0.007396694,        0,       0,       0,       0, 0, 0, 0, 0, 1, 1, 0, 1, 1, 0, 1, 0, 1, 0, 1
    54,     55, 1, 0.009066116, 0.008876033,        0,       0,       0,       0, 0, 0, 0, 0, 1, 1, 0, 1, 1, 0, 1, 0, 1, 0, 1
    55,     56, 1, 0.009066116, 0.008876033,        0,       0,       0,       0, 0, 0, 0, 0, 1, 1, 0, 1, 1, 0, 1, 0, 1, 0, 1
    52,     57, 1, 0.002231405, 0.001512397,        0,       0,       0,       0, 0, 0, 0, 0, 1, 1, 0, 1, 1, 0, 1, 0, 1, 0, 1
    57,     58, 1, 0.002231405, 0.001512397,        0,       0,       0,       0, 0, 0, 0, 0, 1, 1, 0, 1, 1, 0, 1, 0, 1, 0, 1
    58,     59, 1, 0.006694215, 0.004545455,        0,       0,       0,       0, 0, 0, 0, 0, 1, 1, 0, 1, 1, 0, 1, 0, 1, 0, 1
    59,     60, 1, 0.01071074, 0.007280992,        0,       0,       0,       0, 0, 0, 0, 0, 1, 1, 0, 1, 1, 0, 1, 0, 1, 0, 1
    55,     61, 1, 0.009818182, 0.006669421,        0,       0,       0,       0, 0, 0, 0, 0, 1, 1, 0, 1, 1, 0, 1, 0, 1, 0, 1
    61,     62, 1, 0.009818182, 0.006669421,        0,       0,       0,       0, 0, 0, 0, 0, 1, 1, 0, 1, 1, 0, 1, 0, 1, 0, 1
    62,     63, 1, 0.006694215, 0.004545455,        0,       0,       0,       0, 0, 0, 0, 0, 1, 1, 0, 1, 1, 0, 1, 0, 1, 0, 1
    63,     64, 1, 0.01338843, 0.009099174,        0,       0,       0,       0, 0, 0, 0, 0, 1, 1, 0, 1, 1, 0, 1, 0, 1, 0, 1
    62,     65, 1, 0.00892562, 0.006066116,        0,       0,       0,       0, 0, 0, 0, 0, 1, 1, 0, 1, 1, 0, 1, 0, 1, 0, 1
    65,     66, 1, 0.00446281, 0.003033058,        0,       0,       0,       0, 0, 0, 0, 0, 1, 1, 0, 1, 1, 0, 1, 0, 1, 0, 1
    66,     67, 1, 0.00892562, 0.006066116,        0,       0,       0,       0, 0, 0, 0, 0, 1, 1, 0, 1, 1, 0, 1, 0, 1, 0, 1
    22,     67, 1, 0.00314876, 0.002020661,        0,       0,       0,       0, 0, 0, 0, 0, 0, 1, 0, 1, 1, 0, 1, 0, 1, 0, 1
    67,     15, 1, 0.003752066,    0.003,        0,       0,       0,       0, 0, 0, 0, 0, 0, 1, 0, 1, 1, 0, 1, 0, 1, 0, 1
    21,     27, 1, 0.002099174, 0.001677686,        0,       0,       0,       0, 0, 0, 0, 0, 0, 1, 0, 1, 1, 0, 1, 0, 1, 0, 1
     9,     50, 1, 0.005628099,   0.0045,        0,       0,       0,       0, 0, 0, 0, 0, 0, 1, 0, 1, 1, 0, 1, 0, 1, 0, 1
    29,     64, 1, 0.005628099,   0.0045,        0,       0,       0,       0, 0, 0, 0, 0, 0, 1, 0, 1, 1, 0, 1, 0, 1, 0, 1
    45,     60, 1, 0.002099174, 0.001677686,        0,       0,       0,       0, 0, 0, 0, 0, 0, 1, 0, 1, 1, 0, 1, 0, 1, 0, 1
    43,     38, 1, 0.002099174, 0.001677686,        0,       0,       0,       0, 0, 0, 0, 0, 0, 1, 0, 1, 1, 0, 1, 0, 1, 0, 1
     9,     15, 1, 0.003752066,    0.003,        0,       0,       0,       0, 0, 0, 0, 0, 0, 1, 0, 1, 1, 0, 1, 0, 1, 0, 1
0 / END OF BRANCH DATA, BEGIN TRANSFORMER DATA
0 / END OF TRANSFORMER DATA, BEGIN AREA DATA
0 / END OF AREA DATA, BEGIN TWO-TERMINAL DC DATA
0 / END OF TWO-TERMINAL DC DATA, BEGIN VOLTAGE SOURCE CONVERTER DATA
0 / END OF VOLTAGE SOURCE CONVERTER DATA, BEGIN IMPEDANCE CORRECTION DATA
0 / END OF IMPEDANCE CORRECTION DATA, BEGIN MULTI-TERMINAL DC DATA
0 / END OF MULTI-TERMINAL DC DATA, BEGIN MULTI-SECTION LINE DATA
0 / END OF MULTI-SECTION LINE DATA, BEGIN ZONE DATA
0 / END OF ZONE DATA, BEGIN INTER-AREA TRANSFER DATA
0 / END OF INTER-AREA TRANSFER DATA, BEGIN OWNER DATA
0 / END OF OWNER DATA, BEGIN FACTS CONTROL DEVICE DATA
0 / END OF FACTS CONTROL DEVICE DATA, BEGIN SWITCHED SHUNT DATA
0 / END OF SWITCHED SHUNT DATA, BEGIN GNE DEVICE DATA
0 / END OF GNE DEVICE DATA, BEGIN INDUCTION MACHINE DATA
0 / END OF INDUCTION MACHINE DATA
Q
